
     RDKit          3D

 60 64  0  0  0  0  0  0  0  0999 V2000
    4.8970    3.0370    0.0535 C   0  0  0  0  0  0  0  0  0  0  0  0
    4.1050    1.8864    0.6583 C   0  0  0  0  0  0  0  0  0  0  0  0
    3.8687    0.7192   -0.3160 C   0  0  1  0  0  0  0  0  0  0  0  0
    5.1254   -0.0620   -0.5901 C   0  0  0  0  0  0  0  0  0  0  0  0
    5.2066   -1.3290   -1.0288 C   0  0  0  0  0  0  0  0  0  0  0  0
    4.0785   -2.2287   -1.4361 C   0  0  0  0  0  0  0  0  0  0  0  0
    2.7490   -1.5302   -1.7210 C   0  0  0  0  0  0  0  0  0  0  0  0
    2.0658   -0.9045   -0.4890 C   0  0  2  0  0  0  0  0  0  0  0  0
    1.4711   -2.0218    0.3993 C   0  0  0  0  0  0  0  0  0  0  0  0
    0.7045   -1.3821    1.5419 C   0  0  2  0  0  0  0  0  0  0  0  0
   -0.2051   -2.3342    2.3481 C   0  0  0  0  0  0  0  0  0  0  0  0
   -1.6304   -1.7339    2.2648 C   0  0  0  0  0  0  0  0  0  0  0  0
   -1.3847   -0.2698    1.9137 C   0  0  2  0  0  0  0  0  0  0  0  0
   -2.5181    0.5527    1.3361 C   0  0  0  0  0  0  0  0  0  0  0  0
   -2.5226    0.6110   -0.1954 C   0  0  1  0  0  0  0  0  0  0  0  0
   -3.1383   -0.6394   -0.8478 C   0  0  0  0  0  0  0  0  0  0  0  0
   -4.6310   -0.7726   -0.5637 C   0  0  0  0  0  0  0  0  0  0  0  0
   -5.3215    0.5880   -0.5006 C   0  0  0  0  0  0  0  0  0  0  0  0
   -4.4849    1.6599   -1.1948 C   0  0  1  0  0  0  0  0  0  0  0  0
   -5.1696    3.0190   -1.1343 C   0  0  0  0  0  0  0  0  0  0  0  0
   -3.1948    1.8031   -0.5878 O   0  0  0  0  0  0  0  0  0  0  0  0
   -1.1818    0.8055   -0.7301 N   0  0  0  0  0  0  0  0  0  0  0  0
   -0.1239    0.1727   -0.1909 C   0  0  0  0  0  0  0  0  0  0  0  0
   -0.2212   -0.3616    1.0355 N   0  0  0  0  0  0  0  0  0  0  0  0
    0.9983    0.0074   -0.9261 N   0  0  0  0  0  0  0  0  0  0  0  0
    2.9260   -0.1365    0.3320 O   0  0  0  0  0  0  0  0  0  0  0  0
    5.9140    2.7362   -0.2131 H   0  0  0  0  0  0  0  0  0  0  0  0
    4.9717    3.8588    0.7730 H   0  0  0  0  0  0  0  0  0  0  0  0
    4.4041    3.4204   -0.8455 H   0  0  0  0  0  0  0  0  0  0  0  0
    4.6071    1.5283    1.5664 H   0  0  0  0  0  0  0  0  0  0  0  0
    3.1325    2.2707    0.9931 H   0  0  0  0  0  0  0  0  0  0  0  0
    3.4563    1.1287   -1.2460 H   0  0  0  0  0  0  0  0  0  0  0  0
    6.0684    0.4447   -0.3879 H   0  0  0  0  0  0  0  0  0  0  0  0
    6.2019   -1.7640   -1.1323 H   0  0  0  0  0  0  0  0  0  0  0  0
    3.9569   -3.0155   -0.6843 H   0  0  0  0  0  0  0  0  0  0  0  0
    4.3862   -2.7344   -2.3605 H   0  0  0  0  0  0  0  0  0  0  0  0
    2.0604   -2.2448   -2.1909 H   0  0  0  0  0  0  0  0  0  0  0  0
    2.9184   -0.7594   -2.4852 H   0  0  0  0  0  0  0  0  0  0  0  0
    0.7953   -2.6477   -0.1970 H   0  0  0  0  0  0  0  0  0  0  0  0
    2.2542   -2.6648    0.8149 H   0  0  0  0  0  0  0  0  0  0  0  0
    1.3958   -0.8838    2.2332 H   0  0  0  0  0  0  0  0  0  0  0  0
   -0.1884   -3.3622    1.9722 H   0  0  0  0  0  0  0  0  0  0  0  0
    0.1271   -2.3612    3.3924 H   0  0  0  0  0  0  0  0  0  0  0  0
   -2.1824   -1.8544    3.2015 H   0  0  0  0  0  0  0  0  0  0  0  0
   -2.1882   -2.2461    1.4759 H   0  0  0  0  0  0  0  0  0  0  0  0
   -1.0485    0.2371    2.8295 H   0  0  0  0  0  0  0  0  0  0  0  0
   -2.3845    1.5832    1.6976 H   0  0  0  0  0  0  0  0  0  0  0  0
   -3.4816    0.2410    1.7521 H   0  0  0  0  0  0  0  0  0  0  0  0
   -3.0095   -0.5631   -1.9370 H   0  0  0  0  0  0  0  0  0  0  0  0
   -2.6095   -1.5537   -0.5626 H   0  0  0  0  0  0  0  0  0  0  0  0
   -5.0883   -1.3873   -1.3483 H   0  0  0  0  0  0  0  0  0  0  0  0
   -4.7952   -1.3087    0.3784 H   0  0  0  0  0  0  0  0  0  0  0  0
   -5.4610    0.8602    0.5532 H   0  0  0  0  0  0  0  0  0  0  0  0
   -6.3213    0.5181   -0.9441 H   0  0  0  0  0  0  0  0  0  0  0  0
   -4.3357    1.3984   -2.2497 H   0  0  0  0  0  0  0  0  0  0  0  0
   -6.1532    2.9916   -1.6129 H   0  0  0  0  0  0  0  0  0  0  0  0
   -4.5583    3.7773   -1.6357 H   0  0  0  0  0  0  0  0  0  0  0  0
   -5.2919    3.3500   -0.0970 H   0  0  0  0  0  0  0  0  0  0  0  0
   -1.0877    1.3806   -1.5518 H   0  0  0  0  0  0  0  0  0  0  0  0
    1.0669    0.4700   -1.8196 H   0  0  0  0  0  0  0  0  0  0  0  0
  1  2  1  0
  2  3  1  0
  3  4  1  0
  4  5  2  0
  5  6  1  0
  6  7  1  0
  7  8  1  0
  8  9  1  0
  9 10  1  0
 10 11  1  0
 11 12  1  0
 12 13  1  0
 13 14  1  0
 14 15  1  0
 15 16  1  0
 16 17  1  0
 17 18  1  0
 18 19  1  0
 19 20  1  0
 19 21  1  0
 15 22  1  0
 22 23  1  0
 23 24  2  0
 23 25  1  0
  8 26  1  1
 26  3  1  0
 25  8  1  0
 24 10  1  0
 24 13  1  0
 15 21  1  1
  1 27  1  0
  1 28  1  0
  1 29  1  0
  2 30  1  0
  2 31  1  0
  3 32  1  6
  4 33  1  0
  5 34  1  0
  6 35  1  0
  6 36  1  0
  7 37  1  0
  7 38  1  0
  9 39  1  0
  9 40  1  0
 10 41  1  1
 11 42  1  0
 11 43  1  0
 12 44  1  0
 12 45  1  0
 13 46  1  1
 14 47  1  0
 14 48  1  0
 16 49  1  0
 16 50  1  0
 17 51  1  0
 17 52  1  0
 18 53  1  0
 18 54  1  0
 19 55  1  6
 20 56  1  0
 20 57  1  0
 20 58  1  0
 22 59  1  0
 25 60  1  0
M  CHG  1  24   1
M  END
$$$$
