6B3
  CCTOOLS-0919241039

 51 55  0  0  0  0  0  0  0  0999 V2000
   -4.6890    0.6080   -0.1730 C   0  0  0  0  0
    3.1250    1.2920    0.5530 C   0  0  0  0  0
    1.6960    0.9370    0.4580 C   0  0  0  0  0
   -4.1740   -1.5720    0.8930 C   0  0  0  0  0
    3.5070    2.6180    0.7580 C   0  0  0  0  0
    3.0740   -1.5020   -0.9580 C   0  0  0  0  0
    3.7220   -1.1180    0.2300 C   0  0  0  0  0
   -6.4770   -1.0050    0.1050 C   0  0  0  0  0
   -2.7750    2.1910   -0.4000 C   0  0  0  0  0
   -3.2680    0.9540    0.0170 C   0  0  0  0  0
   -0.5930    1.5760    0.3860 C   0  0  0  0  0
   -2.4120    0.0220    0.6240 C   0  0  0  0  0
   -1.0720    0.3450    0.8040 C   0  0  0  0  0
   -1.4470    2.4980   -0.2160 C   0  0  0  0  0
    5.4570    0.6440    0.5340 C   0  0  0  0  0
    3.9940   -2.0740    1.2060 C   0  0  0  0  0
    3.6300   -3.3900    1.0030 C   0  0  0  0  0
    2.9920   -3.7700   -0.1670 C   0  0  0  0  0
    2.7130   -2.8370   -1.1440 C   0  0  0  0  0
    4.1110    0.2940    0.4430 C   0  0  0  0  0
   -2.8870   -1.2100    1.0440 N   0  0  0  0  0
   -5.1380   -0.6530    0.2720 C   0  0  0  0  0
   -7.3460   -0.1180   -0.4920 C   0  0  0  0  0
   -5.5830    1.4910   -0.7680 C   0  0  0  0  0
   -6.9040    1.1240   -0.9240 C   0  0  0  0  0
   -4.5430   -2.6640    1.2830 O   0  0  0  0  0
    0.7540    1.8950    0.5700 N   0  0  0  0  0
    4.8450    2.9440    0.8460 C   0  0  0  0  0
    5.8150    1.9620    0.7320 C   0  0  0  0  0
    1.3670   -0.2200    0.2800 O   0  0  0  0  0
    2.7720   -0.5000   -1.9970 C   0  0  0  0  0
    3.0880    0.6620   -1.8310 O   0  0  0  0  0
    2.1460   -0.8720   -3.1310 O   0  0  0  0  0
    2.7560    3.3890    0.8470 H   0  0  0  0  0
   -6.8300   -1.9700    0.4380 H   0  0  0  0  0
   -3.4360    2.9060   -0.8680 H   0  0  0  0  0
   -0.4040   -0.3640    1.2700 H   0  0  0  0  0
   -1.0650    3.4550   -0.5390 H   0  0  0  0  0
    6.2190   -0.1160    0.4510 H   0  0  0  0  0
    4.4910   -1.7860    2.1200 H   0  0  0  0  0
    3.8440   -4.1290    1.7610 H   0  0  0  0  0
    2.7120   -4.8020   -0.3140 H   0  0  0  0  0
    2.2120   -3.1400   -2.0520 H   0  0  0  0  0
   -2.2710   -1.8320    1.4610 H   0  0  0  0  0
   -8.3820   -0.3920   -0.6250 H   0  0  0  0  0
   -5.2460    2.4600   -1.1060 H   0  0  0  0  0
   -7.5980    1.8070   -1.3890 H   0  0  0  0  0
    1.0130    2.8070    0.7790 H   0  0  0  0  0
    5.1370    3.9720    1.0040 H   0  0  0  0  0
    6.8590    2.2290    0.8030 H   0  0  0  0  0
    1.9700   -0.1790   -3.7830 H   0  0  0  0  0
  1 24  1  0  0  0
  2  3  1  0  0  0
  3 27  1  0  0  0
  4 22  1  0  0  0
  5  2  1  0  0  0
  5 34  1  0  0  0
  6 19  1  0  0  0
  6 31  1  0  0  0
  7  6  2  0  0  0
  8 23  2  0  0  0
  8 35  1  0  0  0
  9 36  1  0  0  0
 10  9  1  0  0  0
 10  1  1  0  0  0
 11 14  1  0  0  0
 12 10  2  0  0  0
 13 11  2  0  0  0
 13 12  1  0  0  0
 13 37  1  0  0  0
 14  9  2  0  0  0
 14 38  1  0  0  0
 15 20  1  0  0  0
 15 39  1  0  0  0
 16 17  2  0  0  0
 16  7  1  0  0  0
 16 40  1  0  0  0
 17 18  1  0  0  0
 17 41  1  0  0  0
 18 19  2  0  0  0
 18 42  1  0  0  0
 19 43  1  0  0  0
 20  7  1  0  0  0
 20  2  2  0  0  0
 21 12  1  0  0  0
 21  4  1  0  0  0
 21 44  1  0  0  0
 22  1  2  0  0  0
 22  8  1  0  0  0
 23 25  1  0  0  0
 23 45  1  0  0  0
 24 25  2  0  0  0
 24 46  1  0  0  0
 25 47  1  0  0  0
 26  4  2  0  0  0
 27 11  1  0  0  0
 27 48  1  0  0  0
 28  5  2  0  0  0
 28 49  1  0  0  0
 29 15  2  0  0  0
 29 28  1  0  0  0
 29 50  1  0  0  0
 30  3  2  0  0  0
 31 33  1  0  0  0
 32 31  2  0  0  0
 33 51  1  0  0  0
M  END
$$$$
