946
  CCTOOLS-0919241036

 42 44  0  0  1  0  0  0  0  0999 V2000
    5.4050   -1.1150    0.0530 C   0  0  0  0  0
    6.0420   -2.3160   -0.0100 O   0  0  0  0  0
    6.0960    0.0570   -0.2390 C   0  0  0  0  0
    7.4090    0.0050   -0.5890 O   0  0  0  0  0
    5.4430    1.2770   -0.1740 C   0  0  0  0  0
    1.7250    1.4110    1.6200 O   0  0  0  0  0
    4.1080    1.3280    0.1820 C   0  0  0  0  0
    3.4210    0.1640    0.4720 C   0  0  0  0  0
    1.9660    0.2260    0.8590 C   0  0  0  0  0
    1.1030    0.2460   -0.4040 C   0  0  0  0  0
   -1.1760    0.3270   -1.2180 C   0  0  0  0  0
   -2.6200    0.3890   -0.7920 C   0  0  0  0  0
   -4.6580   -0.7130   -0.1990 C   0  0  0  0  0
   -5.4040   -1.8850    0.0140 C   0  0  0  0  0
   -6.7060   -1.7940    0.3980 C   0  0  0  0  0
   -7.3150   -0.5550    0.5830 C   0  0  0  0  0
   -6.6240    0.6020    0.3860 C   0  0  0  0  0
   -5.2770    0.5480   -0.0100 C   0  0  0  0  0
   -4.5330    1.7200   -0.2280 C   0  0  0  0  0
   -3.2300    1.6290   -0.6110 C   0  0  0  0  0
    4.0660   -1.0580    0.4040 C   0  0  0  0  0
   -3.3110   -0.7670   -0.5960 C   0  0  0  0  0
   -0.3150    0.3060   -0.0270 N   0  0  0  0  0
    6.4550   -2.5860    0.8210 H   0  0  0  0  0
    7.5600   -0.0870   -1.5400 H   0  0  0  0  0
    5.9770    2.1880   -0.4000 H   0  0  0  0  0
    1.9300    2.2300    1.1480 H   0  0  0  0  0
    3.6010    2.2800    0.2360 H   0  0  0  0  0
    1.7120   -0.6490    1.4580 H   0  0  0  0  0
    1.3570    1.1200   -1.0040 H   0  0  0  0  0
    1.2870   -0.6580   -0.9850 H   0  0  0  0  0
   -1.0080   -0.5760   -1.8040 H   0  0  0  0  0
   -0.9380    1.2020   -1.8230 H   0  0  0  0  0
   -4.9450   -2.8530   -0.1270 H   0  0  0  0  0
   -7.2770   -2.6970    0.5610 H   0  0  0  0  0
   -8.3500   -0.5110    0.8870 H   0  0  0  0  0
   -7.1090    1.5550    0.5320 H   0  0  0  0  0
   -4.9920    2.6880   -0.0920 H   0  0  0  0  0
   -2.6610    2.5310   -0.7780 H   0  0  0  0  0
    3.5280   -1.9660    0.6310 H   0  0  0  0  0
   -2.8260   -1.7210   -0.7440 H   0  0  0  0  0
   -0.4980    1.1020    0.5660 H   0  0  0  0  0
  1  2  1  0  0  0
  2 24  1  0  0  0
  3  1  1  0  0  0
  3  4  1  0  0  0
  4 25  1  0  0  0
  5  3  2  0  0  0
  5 26  1  0  0  0
  6 27  1  0  0  0
  7  8  2  0  0  0
  7  5  1  0  0  0
  7 28  1  0  0  0
  8 21  1  0  0  0
  9  8  1  0  0  0
  9  6  1  0  0  0
  9 29  1  0  0  0
 10  9  1  0  0  0
 10 30  1  0  0  0
 10 31  1  0  0  0
 11 23  1  0  0  0
 11 32  1  0  0  0
 11 33  1  0  0  0
 12 11  1  0  0  0
 13 22  1  0  0  0
 14 13  2  0  0  0
 14 34  1  0  0  0
 15 14  1  0  0  0
 15 35  1  0  0  0
 16 15  2  0  0  0
 16 17  1  0  0  0
 16 36  1  0  0  0
 17 18  2  0  0  0
 17 37  1  0  0  0
 18 13  1  0  0  0
 18 19  1  0  0  0
 19 20  2  0  0  0
 19 38  1  0  0  0
 20 12  1  0  0  0
 20 39  1  0  0  0
 21  1  2  0  0  0
 21 40  1  0  0  0
 22 12  2  0  0  0
 22 41  1  0  0  0
 23 10  1  0  0  0
 23 42  1  0  0  0
M  END
$$$$
