K4I
  CCTOOLS-0919241041

 58 62  0  0  1  0  0  0  0  0999 V2000
   -6.1140    0.1040   -0.0100 C   0  0  0  0  0
   -4.3130    1.5590   -0.1810 C   0  0  0  0  0
   -3.4790    0.5290   -0.4970 C   0  0  0  0  0
   -2.0180    0.7720   -0.7710 C   0  0  0  0  0
   -1.2130    0.5400    0.5090 C   0  0  0  0  0
   -5.6000    1.3150    0.0500 N   0  0  0  0  0
    6.2030    1.7340   -0.8620 O   0  0  0  0  0
   -7.9550    0.8270    1.3430 O   0  0  0  0  0
   -5.3390   -0.9530   -0.2960 N   0  0  0  0  0
   -4.0200   -0.7680   -0.5620 C   0  0  0  0  0
   -3.3120   -1.7170   -0.8530 O   0  0  0  0  0
    6.7290    0.5890   -0.3830 C   0  0  0  0  0
    8.0250    0.0970   -0.2940 C   0  0  0  0  0
    8.2500   -1.1460    0.2630 C   0  0  0  0  0
    7.1890   -1.9110    0.7350 C   0  0  0  0  0
    5.9090   -1.4440    0.6560 C   0  0  0  0  0
    5.6610   -0.1880    0.0960 C   0  0  0  0  0
    2.4330    1.1890    1.1890 C   0  0  0  0  0
    0.9850    0.7970    1.4910 C   0  0  0  0  0
   -3.7790    2.9650   -0.0910 C   0  0  0  0  0
   -7.5960   -0.0160    0.2460 C   0  0  0  0  0
   -7.9680   -1.4590    0.5780 C   0  0  0  0  0
   -7.3500   -2.3680   -0.4920 C   0  0  0  0  0
   -5.8330   -2.3310   -0.3320 C   0  0  0  0  0
    0.7440   -0.2190   -0.6960 C   0  0  0  0  0
    2.1850    0.1430   -1.0630 C   0  0  0  0  0
    3.0370    0.1790    0.2090 C   0  0  0  0  0
    4.4430    0.5940   -0.1380 C   0  0  0  0  0
    9.5110   -1.6230    0.3490 F   0  0  0  0  0
    0.2120    0.7770    0.2420 N   0  0  0  0  0
    4.7990    1.7090   -0.6980 N   0  0  0  0  0
   -1.6740    0.0860   -1.5460 H   0  0  0  0  0
   -1.8770    1.7990   -1.1070 H   0  0  0  0  0
   -1.5570    1.2260    1.2840 H   0  0  0  0  0
   -1.3540   -0.4880    0.8450 H   0  0  0  0  0
   -7.7630    1.7640    1.1980 H   0  0  0  0  0
    8.8540    0.6850   -0.6600 H   0  0  0  0  0
    7.3800   -2.8820    1.1690 H   0  0  0  0  0
    5.0890   -2.0430    1.0240 H   0  0  0  0  0
    2.4560    2.1850    0.7460 H   0  0  0  0  0
    3.0110    1.1890    2.1140 H   0  0  0  0  0
    0.9640   -0.1930    1.9460 H   0  0  0  0  0
    0.5480    1.5210    2.1770 H   0  0  0  0  0
   -3.8560    3.4450   -1.0670 H   0  0  0  0  0
   -4.3610    3.5290    0.6380 H   0  0  0  0  0
   -2.7350    2.9390    0.2200 H   0  0  0  0  0
   -8.1410    0.3000   -0.6430 H   0  0  0  0  0
   -7.5740   -1.7250    1.5590 H   0  0  0  0  0
   -9.0520   -1.5700    0.5740 H   0  0  0  0  0
   -7.7090   -3.3890   -0.3600 H   0  0  0  0  0
   -7.6240   -2.0070   -1.4840 H   0  0  0  0  0
   -5.3720   -2.8540   -1.1700 H   0  0  0  0  0
   -5.5590   -2.8330    0.5960 H   0  0  0  0  0
    0.1320   -0.2310   -1.5980 H   0  0  0  0  0
    0.7250   -1.2040   -0.2300 H   0  0  0  0  0
    2.5850   -0.6040   -1.7480 H   0  0  0  0  0
    2.2040    1.1220   -1.5420 H   0  0  0  0  0
    3.0500   -0.8100    0.6670 H   0  0  0  0  0
  1  9  1  0  0  0
  1  6  2  0  0  0
  2  3  2  0  0  0
  2 20  1  0  0  0
  3  4  1  0  0  0
  4  5  1  0  0  0
  4 32  1  0  0  0
  4 33  1  0  0  0
  5 30  1  0  0  0
  5 34  1  0  0  0
  5 35  1  0  0  0
  6  2  1  0  0  0
  7 12  1  0  0  0
  8 21  1  0  0  0
  8 36  1  0  0  0
  9 10  1  0  0  0
 10 11  2  0  0  0
 10  3  1  0  0  0
 12 13  1  0  0  0
 13 14  2  0  0  0
 13 37  1  0  0  0
 14 29  1  0  0  0
 15 14  1  0  0  0
 15 38  1  0  0  0
 16 15  2  0  0  0
 16 39  1  0  0  0
 17 16  1  0  0  0
 17 12  2  0  0  0
 18 27  1  0  0  0
 18 40  1  0  0  0
 18 41  1  0  0  0
 19 30  1  0  0  0
 19 18  1  0  0  0
 19 42  1  0  0  0
 19 43  1  0  0  0
 20 44  1  0  0  0
 20 45  1  0  0  0
 20 46  1  0  0  0
 21  1  1  0  0  0
 21 47  1  0  0  0
 22 23  1  0  0  0
 22 21  1  0  0  0
 22 48  1  0  0  0
 22 49  1  0  0  0
 23 24  1  0  0  0
 23 50  1  0  0  0
 23 51  1  0  0  0
 24  9  1  0  0  0
 24 52  1  0  0  0
 24 53  1  0  0  0
 25 26  1  0  0  0
 25 54  1  0  0  0
 25 55  1  0  0  0
 26 56  1  0  0  0
 26 57  1  0  0  0
 27 26  1  0  0  0
 27 28  1  0  0  0
 27 58  1  0  0  0
 28 31  2  0  0  0
 28 17  1  0  0  0
 30 25  1  0  0  0
 31  7  1  0  0  0
M  END
$$$$
