ZO0
  CCTOOLS-0919241043

 39 41  0  0  0  0  0  0  0  0999 V2000
   -3.8880   -2.0010   -0.4930 F   0  0  0  0  0
   -2.5760   -2.1440   -0.0260 C   0  0  0  0  0
   -2.5970   -2.6700    1.2690 F   0  0  0  0  0
   -1.8730   -3.0100   -0.8700 F   0  0  0  0  0
   -1.8990   -0.7970   -0.0110 C   0  0  0  0  0
   -2.6430    0.2790   -0.1150 N   0  0  0  0  0
   -2.0810    1.4970   -0.1050 C   0  0  0  0  0
   -2.8450    2.6670   -0.2130 C   0  0  0  0  0
   -2.2230    3.8800   -0.1970 C   0  0  0  0  0
   -0.8390    3.9760   -0.0750 C   0  0  0  0  0
   -0.0670    2.8570    0.0320 C   0  0  0  0  0
   -0.6740    1.5960    0.0200 C   0  0  0  0  0
    0.0740    0.3990    0.1280 C   0  0  0  0  0
   -0.5830   -0.7540    0.1130 N   0  0  0  0  0
    1.4470    0.4300    0.2510 N   0  0  0  0  0
    1.8510   -0.0790    1.4920 C   0  0  0  0  0
    3.3640    0.1360    1.7260 C   0  0  0  0  0
    4.1330   -0.8680    0.9050 C   0  0  0  0  0
    4.5180   -0.3490   -0.4270 N   0  0  0  0  0
    5.0010   -1.4310   -1.2940 C   0  0  0  0  0
    3.4540    0.4290   -1.0940 C   0  0  0  0  0
    2.0970   -0.2040   -0.9140 C   0  0  0  0  0
   -3.9190    2.6090   -0.3090 H   0  0  0  0  0
   -2.8120    4.7810   -0.2810 H   0  0  0  0  0
   -0.3710    4.9490   -0.0660 H   0  0  0  0  0
    1.0060    2.9430    0.1260 H   0  0  0  0  0
    1.2940    0.4250    2.2820 H   0  0  0  0  0
    1.6330   -1.1460    1.5280 H   0  0  0  0  0
    2.2110   -1.2730   -0.7360 H   0  0  0  0  0
    1.4930   -0.0410   -1.8060 H   0  0  0  0  0
    3.6410    1.1450    1.4230 H   0  0  0  0  0
    3.5920   -0.0050    2.7830 H   0  0  0  0  0
    5.0360   -1.1470    1.4480 H   0  0  0  0  0
    3.5170   -1.7570    0.7710 H   0  0  0  0  0
    4.2130   -2.1730   -1.4230 H   0  0  0  0  0
    5.2780   -1.0230   -2.2660 H   0  0  0  0  0
    5.8720   -1.9020   -0.8370 H   0  0  0  0  0
    3.4340    1.4350   -0.6760 H   0  0  0  0  0
    3.6760    0.4930   -2.1590 H   0  0  0  0  0
  1  2  1  0  0  0
  2  3  1  0  0  0
  2  4  1  0  0  0
  2  5  1  0  0  0
  5  6  1  0  0  0
  5 14  2  0  0  0
  6  7  2  0  0  0
  7  8  1  0  0  0
  7 12  1  0  0  0
  8  9  2  0  0  0
  8 23  1  0  0  0
  9 10  1  0  0  0
  9 24  1  0  0  0
 10 11  2  0  0  0
 10 25  1  0  0  0
 11 12  1  0  0  0
 11 26  1  0  0  0
 12 13  2  0  0  0
 13 14  1  0  0  0
 13 15  1  0  0  0
 15 16  1  0  0  0
 15 22  1  0  0  0
 16 17  1  0  0  0
 16 27  1  0  0  0
 16 28  1  0  0  0
 17 18  1  0  0  0
 17 31  1  0  0  0
 17 32  1  0  0  0
 18 19  1  0  0  0
 18 33  1  0  0  0
 18 34  1  0  0  0
 19 20  1  0  0  0
 19 21  1  0  0  0
 20 35  1  0  0  0
 20 36  1  0  0  0
 20 37  1  0  0  0
 21 22  1  0  0  0
 21 38  1  0  0  0
 21 39  1  0  0  0
 22 29  1  0  0  0
 22 30  1  0  0  0
M  END
$$$$
