ZZT
  CCTOOLS-0919241045

 21 21  0  0  0  0  0  0  0  0999 V2000
   -0.6640    2.3570   -0.0020 N   0  0  0  0  0
   -0.0710    1.0890   -0.0020 C   0  0  0  0  0
    1.3110    0.9670    0.0010 C   0  0  0  0  0
    1.8940   -0.2860    0.0010 C   0  0  0  0  0
    3.3950   -0.4160    0.0040 C   0  0  0  0  0
    1.1030   -1.4200   -0.0030 C   0  0  0  0  0
   -0.2750   -1.3070   -0.0070 C   0  0  0  0  0
   -0.8670   -0.0550   -0.0000 C   0  0  0  0  0
   -2.2230    0.0580    0.0020 O   0  0  0  0  0
   -2.9750   -1.1570    0.0040 C   0  0  0  0  0
   -0.1090    3.1520    0.0010 H   0  0  0  0  0
   -1.6310    2.4400   -0.0080 H   0  0  0  0  0
    1.9310    1.8520    0.0040 H   0  0  0  0  0
    3.7540   -0.4500    1.0330 H   0  0  0  0  0
    3.6820   -1.3340   -0.5100 H   0  0  0  0  0
    3.8360    0.4400   -0.5070 H   0  0  0  0  0
    1.5630   -2.3970   -0.0040 H   0  0  0  0  0
   -0.8900   -2.1950   -0.0090 H   0  0  0  0  0
   -4.0400   -0.9240    0.0060 H   0  0  0  0  0
   -2.7310   -1.7360   -0.8860 H   0  0  0  0  0
   -2.7280   -1.7360    0.8940 H   0  0  0  0  0
  1  2  1  0  0  0
  1 11  1  0  0  0
  1 12  1  0  0  0
  2  3  1  0  0  0
  2  8  2  0  0  0
  3  4  2  0  0  0
  3 13  1  0  0  0
  4  5  1  0  0  0
  4  6  1  0  0  0
  5 14  1  0  0  0
  5 15  1  0  0  0
  5 16  1  0  0  0
  6  7  2  0  0  0
  6 17  1  0  0  0
  7  8  1  0  0  0
  7 18  1  0  0  0
  8  9  1  0  0  0
  9 10  1  0  0  0
 10 19  1  0  0  0
 10 20  1  0  0  0
 10 21  1  0  0  0
M  END
$$$$
